 INFO
nunit      2    2    1
unit   cell
celltype   convcell
shape   parapipedal
 END_INFO
 DIM-GROUP
           3           1
 PRIMVEC
    3.0148899810   -0.0108511280    0.0000000000
    1.5169853050    2.6397109440    0.0000000000
    0.0000000000    0.0000000000   19.9999942340
 CONVVEC
    3.0148899810   -0.0108511280    0.0000000000
    1.5169853050    2.6397109440    0.0000000000
    0.0000000000    0.0000000000   19.9999942340
 PRIMCOORD
           4           1
  5      0.0000000000     0.0000000000    10.0000000000     0.0000019700    -0.0000144800     0.0000000000
  5      1.5104148790     0.8178161210    10.0000000000    -0.0000044200     0.0000022200     0.0000000000
  1      1.5136689510     1.7287424940    10.9666759890     0.0000012300     0.0000061300     0.0000118000
  1      1.5136689510     1.7287424940     9.0333240110     0.0000012300     0.0000061300    -0.0000118000
 CONVCOORD
           4           1
  5      0.0000000000     0.0000000000    10.0000000000
  5      1.5104148790     0.8178161210    10.0000000000
  1      1.5136689510     1.7287424940    10.9666759890
  1      1.5136689510     1.7287424940     9.0333240110
 RECIP-PRIMVEC
    0.3310024262   -0.1902200003    0.0000000000

    0.0013606602    0.3780474149   -0.0000000000

   -0.0000000000    0.0000000000    0.0500000144

 RECIP-CONVVEC
    0.3310024262   -0.1902200003    0.0000000000

    0.0013606602    0.3780474149   -0.0000000000

   -0.0000000000    0.0000000000    0.0500000144

 WIGNER-SEITZ-PRIMCELL
           4
 -0.1510659E+01 -0.8876015E+00  0.9999997E+01  -0.4982617E+00 -0.8670267E+00  0.3775295E-15
 -0.1510659E+01 -0.8876015E+00 -0.9999997E+01  -0.4982617E+00 -0.8670267E+00  0.3775295E-15
 -0.6326150E-02 -0.1752109E+01 -0.9999997E+01  -0.4982617E+00 -0.8670267E+00  0.3775295E-15
 -0.6326150E-02 -0.1752109E+01  0.9999997E+01  -0.4982617E+00 -0.8670267E+00  0.3775295E-15
           4
 -0.1504231E+01  0.8984526E+00  0.9999997E+01  -0.9999935E+00  0.3599155E-02  0.1796820E-17
 -0.1504231E+01  0.8984526E+00 -0.9999997E+01  -0.9999935E+00  0.3599155E-02  0.1796820E-17
 -0.1510659E+01 -0.8876015E+00 -0.9999997E+01  -0.9999935E+00  0.3599155E-02  0.1796820E-17
 -0.1510659E+01 -0.8876015E+00  0.9999997E+01  -0.9999935E+00  0.3599155E-02  0.1796820E-17
           4
 -0.6326150E-02 -0.1752109E+01  0.9999997E+01   0.4919977E+00 -0.8705965E+00  0.2303524E-15
 -0.6326150E-02 -0.1752109E+01 -0.9999997E+01   0.4919977E+00 -0.8705965E+00  0.2303524E-15
  0.1504231E+01 -0.8984526E+00 -0.9999997E+01   0.4919977E+00 -0.8705965E+00  0.2303524E-15
  0.1504231E+01 -0.8984526E+00  0.9999997E+01   0.4919977E+00 -0.8705965E+00  0.2303524E-15
           6
 -0.1510659E+01 -0.8876015E+00 -0.9999997E+01   0.2639020E-14 -0.6339834E-15 -0.1000000E+01
 -0.1504231E+01  0.8984526E+00 -0.9999997E+01   0.2639020E-14 -0.6339834E-15 -0.1000000E+01
  0.6326150E-02  0.1752109E+01 -0.9999997E+01   0.2639020E-14 -0.6339834E-15 -0.1000000E+01
  0.1510659E+01  0.8876015E+00 -0.9999997E+01   0.2639020E-14 -0.6339834E-15 -0.1000000E+01
  0.1504231E+01 -0.8984526E+00 -0.9999997E+01   0.2639020E-14 -0.6339834E-15 -0.1000000E+01
 -0.6326150E-02 -0.1752109E+01 -0.9999997E+01   0.2639020E-14 -0.6339834E-15 -0.1000000E+01
           6
 -0.6326150E-02 -0.1752109E+01  0.9999997E+01   0.1319510E-14 -0.1458677E-14  0.1000000E+01
  0.1504231E+01 -0.8984526E+00  0.9999997E+01   0.1319510E-14 -0.1458677E-14  0.1000000E+01
  0.1510659E+01  0.8876015E+00  0.9999997E+01   0.1319510E-14 -0.1458677E-14  0.1000000E+01
  0.6326150E-02  0.1752109E+01  0.9999997E+01   0.1319510E-14 -0.1458677E-14  0.1000000E+01
 -0.1504231E+01  0.8984526E+00  0.9999997E+01   0.1319510E-14 -0.1458677E-14  0.1000000E+01
 -0.1510659E+01 -0.8876015E+00  0.9999997E+01   0.1319510E-14 -0.1458677E-14  0.1000000E+01
           4
  0.6326150E-02  0.1752109E+01  0.9999997E+01  -0.4919977E+00  0.8705965E+00 -0.2559471E-16
  0.6326150E-02  0.1752109E+01 -0.9999997E+01  -0.4919977E+00  0.8705965E+00 -0.2559471E-16
 -0.1504231E+01  0.8984526E+00 -0.9999997E+01  -0.4919977E+00  0.8705965E+00 -0.2559471E-16
 -0.1504231E+01  0.8984526E+00  0.9999997E+01  -0.4919977E+00  0.8705965E+00 -0.2559471E-16
           4
  0.1504231E+01 -0.8984526E+00  0.9999997E+01   0.9999935E+00 -0.3599155E-02 -0.1675414E-17
  0.1504231E+01 -0.8984526E+00 -0.9999997E+01   0.9999935E+00 -0.3599155E-02 -0.1675414E-17
  0.1510659E+01  0.8876015E+00 -0.9999997E+01   0.9999935E+00 -0.3599155E-02 -0.1675414E-17
  0.1510659E+01  0.8876015E+00  0.9999997E+01   0.9999935E+00 -0.3599155E-02 -0.1675414E-17
           4
  0.6326150E-02  0.1752109E+01  0.9999997E+01   0.4982617E+00  0.8670267E+00 -0.2962012E-15
  0.1510659E+01  0.8876015E+00  0.9999997E+01   0.4982617E+00  0.8670267E+00 -0.2962012E-15
  0.1510659E+01  0.8876015E+00 -0.9999997E+01   0.4982617E+00  0.8670267E+00 -0.2962012E-15
  0.6326150E-02  0.1752109E+01 -0.9999997E+01   0.4982617E+00  0.8670267E+00 -0.2962012E-15
 WIGNER-SEITZ-PRIMCELL_END
 WIGNER-SEITZ-CONVCELL
           4
 -0.1510659E+01 -0.8876015E+00  0.9999997E+01  -0.4982617E+00 -0.8670267E+00  0.3775295E-15
 -0.1510659E+01 -0.8876015E+00 -0.9999997E+01  -0.4982617E+00 -0.8670267E+00  0.3775295E-15
 -0.6326150E-02 -0.1752109E+01 -0.9999997E+01  -0.4982617E+00 -0.8670267E+00  0.3775295E-15
 -0.6326150E-02 -0.1752109E+01  0.9999997E+01  -0.4982617E+00 -0.8670267E+00  0.3775295E-15
           4
 -0.1504231E+01  0.8984526E+00  0.9999997E+01  -0.9999935E+00  0.3599155E-02  0.1796820E-17
 -0.1504231E+01  0.8984526E+00 -0.9999997E+01  -0.9999935E+00  0.3599155E-02  0.1796820E-17
 -0.1510659E+01 -0.8876015E+00 -0.9999997E+01  -0.9999935E+00  0.3599155E-02  0.1796820E-17
 -0.1510659E+01 -0.8876015E+00  0.9999997E+01  -0.9999935E+00  0.3599155E-02  0.1796820E-17
           4
 -0.6326150E-02 -0.1752109E+01  0.9999997E+01   0.4919977E+00 -0.8705965E+00  0.2303524E-15
 -0.6326150E-02 -0.1752109E+01 -0.9999997E+01   0.4919977E+00 -0.8705965E+00  0.2303524E-15
  0.1504231E+01 -0.8984526E+00 -0.9999997E+01   0.4919977E+00 -0.8705965E+00  0.2303524E-15
  0.1504231E+01 -0.8984526E+00  0.9999997E+01   0.4919977E+00 -0.8705965E+00  0.2303524E-15
           6
 -0.1510659E+01 -0.8876015E+00 -0.9999997E+01   0.2639020E-14 -0.6339834E-15 -0.1000000E+01
 -0.1504231E+01  0.8984526E+00 -0.9999997E+01   0.2639020E-14 -0.6339834E-15 -0.1000000E+01
  0.6326150E-02  0.1752109E+01 -0.9999997E+01   0.2639020E-14 -0.6339834E-15 -0.1000000E+01
  0.1510659E+01  0.8876015E+00 -0.9999997E+01   0.2639020E-14 -0.6339834E-15 -0.1000000E+01
  0.1504231E+01 -0.8984526E+00 -0.9999997E+01   0.2639020E-14 -0.6339834E-15 -0.1000000E+01
 -0.6326150E-02 -0.1752109E+01 -0.9999997E+01   0.2639020E-14 -0.6339834E-15 -0.1000000E+01
           6
 -0.6326150E-02 -0.1752109E+01  0.9999997E+01   0.1319510E-14 -0.1458677E-14  0.1000000E+01
  0.1504231E+01 -0.8984526E+00  0.9999997E+01   0.1319510E-14 -0.1458677E-14  0.1000000E+01
  0.1510659E+01  0.8876015E+00  0.9999997E+01   0.1319510E-14 -0.1458677E-14  0.1000000E+01
  0.6326150E-02  0.1752109E+01  0.9999997E+01   0.1319510E-14 -0.1458677E-14  0.1000000E+01
 -0.1504231E+01  0.8984526E+00  0.9999997E+01   0.1319510E-14 -0.1458677E-14  0.1000000E+01
 -0.1510659E+01 -0.8876015E+00  0.9999997E+01   0.1319510E-14 -0.1458677E-14  0.1000000E+01
           4
  0.6326150E-02  0.1752109E+01  0.9999997E+01  -0.4919977E+00  0.8705965E+00 -0.2559471E-16
  0.6326150E-02  0.1752109E+01 -0.9999997E+01  -0.4919977E+00  0.8705965E+00 -0.2559471E-16
 -0.1504231E+01  0.8984526E+00 -0.9999997E+01  -0.4919977E+00  0.8705965E+00 -0.2559471E-16
 -0.1504231E+01  0.8984526E+00  0.9999997E+01  -0.4919977E+00  0.8705965E+00 -0.2559471E-16
           4
  0.1504231E+01 -0.8984526E+00  0.9999997E+01   0.9999935E+00 -0.3599155E-02 -0.1675414E-17
  0.1504231E+01 -0.8984526E+00 -0.9999997E+01   0.9999935E+00 -0.3599155E-02 -0.1675414E-17
  0.1510659E+01  0.8876015E+00 -0.9999997E+01   0.9999935E+00 -0.3599155E-02 -0.1675414E-17
  0.1510659E+01  0.8876015E+00  0.9999997E+01   0.9999935E+00 -0.3599155E-02 -0.1675414E-17
           4
  0.6326150E-02  0.1752109E+01  0.9999997E+01   0.4982617E+00  0.8670267E+00 -0.2962012E-15
  0.1510659E+01  0.8876015E+00  0.9999997E+01   0.4982617E+00  0.8670267E+00 -0.2962012E-15
  0.1510659E+01  0.8876015E+00 -0.9999997E+01   0.4982617E+00  0.8670267E+00 -0.2962012E-15
  0.6326150E-02  0.1752109E+01 -0.9999997E+01   0.4982617E+00  0.8670267E+00 -0.2962012E-15
 WIGNER-SEITZ-CONVCELL_END
 BRILLOUIN-ZONE-PRIMCELL
           6
 -0.1126601E+00 -0.1886207E+00 -0.2500001E-01  -0.4259599E-16  0.0000000E+00 -0.1000000E+01
 -0.2197030E+00  0.7932577E-03 -0.2500001E-01  -0.4259599E-16  0.0000000E+00 -0.1000000E+01
 -0.1112994E+00  0.1894267E+00 -0.2500001E-01  -0.4259599E-16  0.0000000E+00 -0.1000000E+01
  0.1126601E+00  0.1886207E+00 -0.2500001E-01  -0.4259599E-16  0.0000000E+00 -0.1000000E+01
  0.2197030E+00 -0.7932577E-03 -0.2500001E-01  -0.4259599E-16  0.0000000E+00 -0.1000000E+01
  0.1112994E+00 -0.1894267E+00 -0.2500001E-01  -0.4259599E-16  0.0000000E+00 -0.1000000E+01
           4
  0.2197030E+00 -0.7932577E-03  0.2500001E-01   0.8670267E+00 -0.4982617E+00 -0.6368604E-15
  0.1112994E+00 -0.1894267E+00  0.2500001E-01   0.8670267E+00 -0.4982617E+00 -0.6368604E-15
  0.1112994E+00 -0.1894267E+00 -0.2500001E-01   0.8670267E+00 -0.4982617E+00 -0.6368604E-15
  0.2197030E+00 -0.7932577E-03 -0.2500001E-01   0.8670267E+00 -0.4982617E+00 -0.6368604E-15
           4
 -0.1126601E+00 -0.1886207E+00 -0.2500001E-01  -0.3599155E-02 -0.9999935E+00  0.3153814E-15
  0.1112994E+00 -0.1894267E+00 -0.2500001E-01  -0.3599155E-02 -0.9999935E+00  0.3153814E-15
  0.1112994E+00 -0.1894267E+00  0.2500001E-01  -0.3599155E-02 -0.9999935E+00  0.3153814E-15
 -0.1126601E+00 -0.1886207E+00  0.2500001E-01  -0.3599155E-02 -0.9999935E+00  0.3153814E-15
           4
  0.1126601E+00  0.1886207E+00  0.2500001E-01   0.8705965E+00  0.4919977E+00  0.4824999E-15
  0.2197030E+00 -0.7932577E-03  0.2500001E-01   0.8705965E+00  0.4919977E+00  0.4824999E-15
  0.2197030E+00 -0.7932577E-03 -0.2500001E-01   0.8705965E+00  0.4919977E+00  0.4824999E-15
  0.1126601E+00  0.1886207E+00 -0.2500001E-01   0.8705965E+00  0.4919977E+00  0.4824999E-15
           4
 -0.2197030E+00  0.7932577E-03  0.2500001E-01  -0.8705965E+00 -0.4919977E+00 -0.4821322E-15
 -0.2197030E+00  0.7932577E-03 -0.2500001E-01  -0.8705965E+00 -0.4919977E+00 -0.4821322E-15
 -0.1126601E+00 -0.1886207E+00 -0.2500001E-01  -0.8705965E+00 -0.4919977E+00 -0.4821322E-15
 -0.1126601E+00 -0.1886207E+00  0.2500001E-01  -0.8705965E+00 -0.4919977E+00 -0.4821322E-15
           4
  0.1126601E+00  0.1886207E+00  0.2500001E-01   0.3599155E-02  0.9999935E+00  0.6196520E-15
  0.1126601E+00  0.1886207E+00 -0.2500001E-01   0.3599155E-02  0.9999935E+00  0.6196520E-15
 -0.1112994E+00  0.1894267E+00 -0.2500001E-01   0.3599155E-02  0.9999935E+00  0.6196520E-15
 -0.1112994E+00  0.1894267E+00  0.2500001E-01   0.3599155E-02  0.9999935E+00  0.6196520E-15
           4
 -0.1112994E+00  0.1894267E+00  0.2500001E-01  -0.8670267E+00  0.4982617E+00 -0.1594681E-14
 -0.1112994E+00  0.1894267E+00 -0.2500001E-01  -0.8670267E+00  0.4982617E+00 -0.1594681E-14
 -0.2197030E+00  0.7932577E-03 -0.2500001E-01  -0.8670267E+00  0.4982617E+00 -0.1594681E-14
 -0.2197030E+00  0.7932577E-03  0.2500001E-01  -0.8670267E+00  0.4982617E+00 -0.1594681E-14
           6
  0.1112994E+00 -0.1894267E+00  0.2500001E-01  -0.6389398E-16 -0.0000000E+00  0.1000000E+01
  0.2197030E+00 -0.7932577E-03  0.2500001E-01  -0.6389398E-16 -0.0000000E+00  0.1000000E+01
  0.1126601E+00  0.1886207E+00  0.2500001E-01  -0.6389398E-16 -0.0000000E+00  0.1000000E+01
 -0.1112994E+00  0.1894267E+00  0.2500001E-01  -0.6389398E-16 -0.0000000E+00  0.1000000E+01
 -0.2197030E+00  0.7932577E-03  0.2500001E-01  -0.6389398E-16 -0.0000000E+00  0.1000000E+01
 -0.1126601E+00 -0.1886207E+00  0.2500001E-01  -0.6389398E-16 -0.0000000E+00  0.1000000E+01
 BRILLOUIN-ZONE-PRIMCELL_END
 BRILLOUIN-ZONE-CONVCELL
           6
 -0.1126601E+00 -0.1886207E+00 -0.2500001E-01  -0.4259599E-16  0.0000000E+00 -0.1000000E+01
 -0.2197030E+00  0.7932577E-03 -0.2500001E-01  -0.4259599E-16  0.0000000E+00 -0.1000000E+01
 -0.1112994E+00  0.1894267E+00 -0.2500001E-01  -0.4259599E-16  0.0000000E+00 -0.1000000E+01
  0.1126601E+00  0.1886207E+00 -0.2500001E-01  -0.4259599E-16  0.0000000E+00 -0.1000000E+01
  0.2197030E+00 -0.7932577E-03 -0.2500001E-01  -0.4259599E-16  0.0000000E+00 -0.1000000E+01
  0.1112994E+00 -0.1894267E+00 -0.2500001E-01  -0.4259599E-16  0.0000000E+00 -0.1000000E+01
           4
  0.2197030E+00 -0.7932577E-03  0.2500001E-01   0.8670267E+00 -0.4982617E+00 -0.6368604E-15
  0.1112994E+00 -0.1894267E+00  0.2500001E-01   0.8670267E+00 -0.4982617E+00 -0.6368604E-15
  0.1112994E+00 -0.1894267E+00 -0.2500001E-01   0.8670267E+00 -0.4982617E+00 -0.6368604E-15
  0.2197030E+00 -0.7932577E-03 -0.2500001E-01   0.8670267E+00 -0.4982617E+00 -0.6368604E-15
           4
 -0.1126601E+00 -0.1886207E+00 -0.2500001E-01  -0.3599155E-02 -0.9999935E+00  0.3153814E-15
  0.1112994E+00 -0.1894267E+00 -0.2500001E-01  -0.3599155E-02 -0.9999935E+00  0.3153814E-15
  0.1112994E+00 -0.1894267E+00  0.2500001E-01  -0.3599155E-02 -0.9999935E+00  0.3153814E-15
 -0.1126601E+00 -0.1886207E+00  0.2500001E-01  -0.3599155E-02 -0.9999935E+00  0.3153814E-15
           4
  0.1126601E+00  0.1886207E+00  0.2500001E-01   0.8705965E+00  0.4919977E+00  0.4824999E-15
  0.2197030E+00 -0.7932577E-03  0.2500001E-01   0.8705965E+00  0.4919977E+00  0.4824999E-15
  0.2197030E+00 -0.7932577E-03 -0.2500001E-01   0.8705965E+00  0.4919977E+00  0.4824999E-15
  0.1126601E+00  0.1886207E+00 -0.2500001E-01   0.8705965E+00  0.4919977E+00  0.4824999E-15
           4
 -0.2197030E+00  0.7932577E-03  0.2500001E-01  -0.8705965E+00 -0.4919977E+00 -0.4821322E-15
 -0.2197030E+00  0.7932577E-03 -0.2500001E-01  -0.8705965E+00 -0.4919977E+00 -0.4821322E-15
 -0.1126601E+00 -0.1886207E+00 -0.2500001E-01  -0.8705965E+00 -0.4919977E+00 -0.4821322E-15
 -0.1126601E+00 -0.1886207E+00  0.2500001E-01  -0.8705965E+00 -0.4919977E+00 -0.4821322E-15
           4
  0.1126601E+00  0.1886207E+00  0.2500001E-01   0.3599155E-02  0.9999935E+00  0.6196520E-15
  0.1126601E+00  0.1886207E+00 -0.2500001E-01   0.3599155E-02  0.9999935E+00  0.6196520E-15
 -0.1112994E+00  0.1894267E+00 -0.2500001E-01   0.3599155E-02  0.9999935E+00  0.6196520E-15
 -0.1112994E+00  0.1894267E+00  0.2500001E-01   0.3599155E-02  0.9999935E+00  0.6196520E-15
           4
 -0.1112994E+00  0.1894267E+00  0.2500001E-01  -0.8670267E+00  0.4982617E+00 -0.1594681E-14
 -0.1112994E+00  0.1894267E+00 -0.2500001E-01  -0.8670267E+00  0.4982617E+00 -0.1594681E-14
 -0.2197030E+00  0.7932577E-03 -0.2500001E-01  -0.8670267E+00  0.4982617E+00 -0.1594681E-14
 -0.2197030E+00  0.7932577E-03  0.2500001E-01  -0.8670267E+00  0.4982617E+00 -0.1594681E-14
           6
  0.1112994E+00 -0.1894267E+00  0.2500001E-01  -0.6389398E-16 -0.0000000E+00  0.1000000E+01
  0.2197030E+00 -0.7932577E-03  0.2500001E-01  -0.6389398E-16 -0.0000000E+00  0.1000000E+01
  0.1126601E+00  0.1886207E+00  0.2500001E-01  -0.6389398E-16 -0.0000000E+00  0.1000000E+01
 -0.1112994E+00  0.1894267E+00  0.2500001E-01  -0.6389398E-16 -0.0000000E+00  0.1000000E+01
 -0.2197030E+00  0.7932577E-03  0.2500001E-01  -0.6389398E-16 -0.0000000E+00  0.1000000E+01
 -0.1126601E+00 -0.1886207E+00  0.2500001E-01  -0.6389398E-16 -0.0000000E+00  0.1000000E+01
 BRILLOUIN-ZONE-CONVCELL_END
 ATOMS
    5    0.0000000000    0.0000000000   10.0000000000    0.0000019700   -0.0000144800    0.0000000000
    5    1.5104148790    0.8178161210   10.0000000000   -0.0000044200    0.0000022200    0.0000000000
    1    1.5136689510    1.7287424940   10.9666759890    0.0000012300    0.0000061300    0.0000118000
    1    1.5136689510    1.7287424940    9.0333240110    0.0000012300    0.0000061300   -0.0000118000
    5    1.5169853050    2.6397109440   10.0000000000    0.0000019700   -0.0000144800    0.0000000000
    5    3.0274001840    3.4575270650   10.0000000000   -0.0000044200    0.0000022200    0.0000000000
    1    3.0306542560    4.3684534380   10.9666759890    0.0000012300    0.0000061300    0.0000118000
    1    3.0306542560    4.3684534380    9.0333240110    0.0000012300    0.0000061300   -0.0000118000
    5    3.0339706100    5.2794218880   10.0000000000    0.0000019700   -0.0000144800    0.0000000000
    5    3.0148899810   -0.0108511280   10.0000000000    0.0000019700   -0.0000144800    0.0000000000
    5    4.5253048600    0.8069649930   10.0000000000   -0.0000044200    0.0000022200    0.0000000000
    1    4.5285589320    1.7178913660   10.9666759890    0.0000012300    0.0000061300    0.0000118000
    1    4.5285589320    1.7178913660    9.0333240110    0.0000012300    0.0000061300   -0.0000118000
    5    4.5318752860    2.6288598160   10.0000000000    0.0000019700   -0.0000144800    0.0000000000
    5    6.0422901650    3.4466759370   10.0000000000   -0.0000044200    0.0000022200    0.0000000000
    1    6.0455442370    4.3576023100   10.9666759890    0.0000012300    0.0000061300    0.0000118000
    1    6.0455442370    4.3576023100    9.0333240110    0.0000012300    0.0000061300   -0.0000118000
    5    6.0488605910    5.2685707600   10.0000000000    0.0000019700   -0.0000144800    0.0000000000
    5    6.0297799620   -0.0217022560   10.0000000000    0.0000019700   -0.0000144800    0.0000000000
    5    7.5467652670    2.6180086880   10.0000000000    0.0000019700   -0.0000144800    0.0000000000
    5    9.0637505720    5.2577196320   10.0000000000    0.0000019700   -0.0000144800    0.0000000000
 FRAMES
1      0.0000000000    0.0000000000    0.0000000000      3.0148899810   -0.0108511280    0.0000000000
1      0.0000000000    0.0000000000    0.0000000000      1.5169853050    2.6397109440    0.0000000000
1      0.0000000000    0.0000000000    0.0000000000      0.0000000000    0.0000000000   19.9999942340
1      0.0000000000    0.0000000000   19.9999942340      3.0148899810   -0.0108511280   19.9999942340
1      0.0000000000    0.0000000000   19.9999942340      1.5169853050    2.6397109440   19.9999942340
1      1.5169853050    2.6397109440    0.0000000000      4.5318752860    2.6288598160    0.0000000000
1      1.5169853050    2.6397109440    0.0000000000      3.0339706100    5.2794218880    0.0000000000
1      1.5169853050    2.6397109440    0.0000000000      1.5169853050    2.6397109440   19.9999942340
1      1.5169853050    2.6397109440   19.9999942340      4.5318752860    2.6288598160   19.9999942340
1      1.5169853050    2.6397109440   19.9999942340      3.0339706100    5.2794218880   19.9999942340
1      3.0339706100    5.2794218880    0.0000000000      6.0488605910    5.2685707600    0.0000000000
1      3.0339706100    5.2794218880    0.0000000000      3.0339706100    5.2794218880   19.9999942340
1      3.0339706100    5.2794218880   19.9999942340      6.0488605910    5.2685707600   19.9999942340
1      3.0148899810   -0.0108511280    0.0000000000      6.0297799620   -0.0217022560    0.0000000000
1      3.0148899810   -0.0108511280    0.0000000000      4.5318752860    2.6288598160    0.0000000000
1      3.0148899810   -0.0108511280    0.0000000000      3.0148899810   -0.0108511280   19.9999942340
1      3.0148899810   -0.0108511280   19.9999942340      6.0297799620   -0.0217022560   19.9999942340
1      3.0148899810   -0.0108511280   19.9999942340      4.5318752860    2.6288598160   19.9999942340
1      4.5318752860    2.6288598160    0.0000000000      7.5467652670    2.6180086880    0.0000000000
1      4.5318752860    2.6288598160    0.0000000000      6.0488605910    5.2685707600    0.0000000000
1      4.5318752860    2.6288598160    0.0000000000      4.5318752860    2.6288598160   19.9999942340
1      4.5318752860    2.6288598160   19.9999942340      7.5467652670    2.6180086880   19.9999942340
1      4.5318752860    2.6288598160   19.9999942340      6.0488605910    5.2685707600   19.9999942340
1      6.0488605910    5.2685707600    0.0000000000      9.0637505720    5.2577196320    0.0000000000
1      6.0488605910    5.2685707600    0.0000000000      6.0488605910    5.2685707600   19.9999942340
1      6.0488605910    5.2685707600   19.9999942340      9.0637505720    5.2577196320   19.9999942340
1      6.0297799620   -0.0217022560    0.0000000000      7.5467652670    2.6180086880    0.0000000000
1      6.0297799620   -0.0217022560    0.0000000000      6.0297799620   -0.0217022560   19.9999942340
1      6.0297799620   -0.0217022560   19.9999942340      7.5467652670    2.6180086880   19.9999942340
1      7.5467652670    2.6180086880    0.0000000000      9.0637505720    5.2577196320    0.0000000000
1      7.5467652670    2.6180086880    0.0000000000      7.5467652670    2.6180086880   19.9999942340
1      7.5467652670    2.6180086880   19.9999942340      9.0637505720    5.2577196320   19.9999942340
1      9.0637505720    5.2577196320    0.0000000000      9.0637505720    5.2577196320   19.9999942340
